2562
  -OEChem-04112411293D

 55 56  0     0  0  0  0  0  0999 V2000
    1.2173   -1.4161    0.1771 O   0  0  0  0  0  0  0  0  0  0  0  0
    3.0899   -1.8040    1.4730 O   0  0  0  0  0  0  0  0  0  0  0  0
   -1.5678   -1.3574    0.4911 O   0  0  0  0  0  0  0  0  0  0  0  0
   -4.9077   -0.0619   -0.3440 N   0  0  0  0  0  0  0  0  0  0  0  0
    3.1022   -0.0672   -0.2117 C   0  0  0  0  0  0  0  0  0  0  0  0
    3.2218   -0.4899   -1.6888 C   0  0  0  0  0  0  0  0  0  0  0  0
    4.5869    0.0991    0.1661 C   0  0  0  0  0  0  0  0  0  0  0  0
    4.4511   -1.3924   -1.7604 C   0  0  0  0  0  0  0  0  0  0  0  0
    5.3285   -1.0112   -0.5745 C   0  0  0  0  0  0  0  0  0  0  0  0
    2.2553    1.1783    0.0169 C   0  0  0  0  0  0  0  0  0  0  0  0
    2.4975   -1.1965    0.5914 C   0  0  0  0  0  0  0  0  0  0  0  0
    1.1734    1.4509   -0.8210 C   0  0  0  0  0  0  0  0  0  0  0  0
    2.5611    2.0481    1.0644 C   0  0  0  0  0  0  0  0  0  0  0  0
    0.3983    2.5917   -0.6116 C   0  0  0  0  0  0  0  0  0  0  0  0
    1.7860    3.1887    1.2737 C   0  0  0  0  0  0  0  0  0  0  0  0
    0.5223   -2.4658    0.8576 C   0  0  0  0  0  0  0  0  0  0  0  0
    0.7047    3.4605    0.4358 C   0  0  0  0  0  0  0  0  0  0  0  0
   -0.8775   -2.5841    0.2861 C   0  0  0  0  0  0  0  0  0  0  0  0
   -3.5606   -0.0666    0.2064 C   0  0  0  0  0  0  0  0  0  0  0  0
   -2.8822   -1.4035   -0.0462 C   0  0  0  0  0  0  0  0  0  0  0  0
   -5.5470    1.2400   -0.1380 C   0  0  0  0  0  0  0  0  0  0  0  0
   -5.7176   -1.1234    0.2584 C   0  0  0  0  0  0  0  0  0  0  0  0
   -4.7329    2.3611   -0.7504 C   0  0  0  0  0  0  0  0  0  0  0  0
   -7.1030   -1.1783   -0.3515 C   0  0  0  0  0  0  0  0  0  0  0  0
    2.3426   -1.0116   -2.0826 H   0  0  0  0  0  0  0  0  0  0  0  0
    3.3941    0.3870   -2.3274 H   0  0  0  0  0  0  0  0  0  0  0  0
    4.9662    1.0670   -0.1894 H   0  0  0  0  0  0  0  0  0  0  0  0
    4.7872    0.0510    1.2423 H   0  0  0  0  0  0  0  0  0  0  0  0
    4.1566   -2.4454   -1.6817 H   0  0  0  0  0  0  0  0  0  0  0  0
    4.9778   -1.2719   -2.7127 H   0  0  0  0  0  0  0  0  0  0  0  0
    6.3198   -0.6755   -0.8965 H   0  0  0  0  0  0  0  0  0  0  0  0
    5.4782   -1.8802    0.0762 H   0  0  0  0  0  0  0  0  0  0  0  0
    0.9011    0.7896   -1.6380 H   0  0  0  0  0  0  0  0  0  0  0  0
    3.3868    1.8565    1.7428 H   0  0  0  0  0  0  0  0  0  0  0  0
   -0.4466    2.8013   -1.2612 H   0  0  0  0  0  0  0  0  0  0  0  0
    2.0218    3.8633    2.0915 H   0  0  0  0  0  0  0  0  0  0  0  0
    1.0618   -3.4099    0.7251 H   0  0  0  0  0  0  0  0  0  0  0  0
    0.4683   -2.2150    1.9234 H   0  0  0  0  0  0  0  0  0  0  0  0
    0.0998    4.3474    0.5999 H   0  0  0  0  0  0  0  0  0  0  0  0
   -0.8201   -2.7840   -0.7902 H   0  0  0  0  0  0  0  0  0  0  0  0
   -1.4130   -3.4019    0.7804 H   0  0  0  0  0  0  0  0  0  0  0  0
   -3.5543    0.1558    1.2821 H   0  0  0  0  0  0  0  0  0  0  0  0
   -2.9213    0.6875   -0.2662 H   0  0  0  0  0  0  0  0  0  0  0  0
   -2.8333   -1.6135   -1.1216 H   0  0  0  0  0  0  0  0  0  0  0  0
   -3.3888   -2.2292    0.4595 H   0  0  0  0  0  0  0  0  0  0  0  0
   -6.5199    1.2728   -0.6393 H   0  0  0  0  0  0  0  0  0  0  0  0
   -5.7158    1.4474    0.9263 H   0  0  0  0  0  0  0  0  0  0  0  0
   -5.7917   -1.0157    1.3478 H   0  0  0  0  0  0  0  0  0  0  0  0
   -5.2966   -2.1103    0.0506 H   0  0  0  0  0  0  0  0  0  0  0  0
   -5.3384    3.2738   -0.7914 H   0  0  0  0  0  0  0  0  0  0  0  0
   -4.4263    2.1297   -1.7763 H   0  0  0  0  0  0  0  0  0  0  0  0
   -3.8449    2.6066   -0.1597 H   0  0  0  0  0  0  0  0  0  0  0  0
   -7.5995   -2.1097   -0.0558 H   0  0  0  0  0  0  0  0  0  0  0  0
   -7.0668   -1.1632   -1.4464 H   0  0  0  0  0  0  0  0  0  0  0  0
   -7.7456   -0.3625   -0.0064 H   0  0  0  0  0  0  0  0  0  0  0  0
  1 11  1  0  0  0  0
  1 16  1  0  0  0  0
  2 11  2  0  0  0  0
  3 18  1  0  0  0  0
  3 20  1  0  0  0  0
  4 19  1  0  0  0  0
  4 21  1  0  0  0  0
  4 22  1  0  0  0  0
  5  6  1  0  0  0  0
  5  7  1  0  0  0  0
  5 10  1  0  0  0  0
  5 11  1  0  0  0  0
  6  8  1  0  0  0  0
  6 25  1  0  0  0  0
  6 26  1  0  0  0  0
  7  9  1  0  0  0  0
  7 27  1  0  0  0  0
  7 28  1  0  0  0  0
  8  9  1  0  0  0  0
  8 29  1  0  0  0  0
  8 30  1  0  0  0  0
  9 31  1  0  0  0  0
  9 32  1  0  0  0  0
 10 12  2  0  0  0  0
 10 13  1  0  0  0  0
 12 14  1  0  0  0  0
 12 33  1  0  0  0  0
 13 15  2  0  0  0  0
 13 34  1  0  0  0  0
 14 17  2  0  0  0  0
 14 35  1  0  0  0  0
 15 17  1  0  0  0  0
 15 36  1  0  0  0  0
 16 18  1  0  0  0  0
 16 37  1  0  0  0  0
 16 38  1  0  0  0  0
 17 39  1  0  0  0  0
 18 40  1  0  0  0  0
 18 41  1  0  0  0  0
 19 20  1  0  0  0  0
 19 42  1  0  0  0  0
 19 43  1  0  0  0  0
 20 44  1  0  0  0  0
 20 45  1  0  0  0  0
 21 23  1  0  0  0  0
 21 46  1  0  0  0  0
 21 47  1  0  0  0  0
 22 24  1  0  0  0  0
 22 48  1  0  0  0  0
 22 49  1  0  0  0  0
 23 50  1  0  0  0  0
 23 51  1  0  0  0  0
 23 52  1  0  0  0  0
 24 53  1  0  0  0  0
 24 54  1  0  0  0  0
 24 55  1  0  0  0  0
M  END
> <PUBCHEM_COMPOUND_CID>
2562

> <PUBCHEM_CONFORMER_RMSD>
1.2

> <PUBCHEM_CONFORMER_DIVERSEORDER>
1
33
93
81
30
32
69
71
85
3
37
51
54
50
60
31
58
57
25
59
62
83
65
27
53
64
7
13
43
94
80
90
63
10
35
55
44
41
52
42
15
92
87
56
86
14
8
78
36
67
68
76
5
48
34
91
38
73
2
77
49
72
45
21
24
6
47
70
9
75
89
23
26
11
12
18
84
17
4
66
39
20
61
40
22
16
88
74
82
79
28
46
29
19

> <PUBCHEM_MMFF94_PARTIAL_CHARGES>
23
1 -0.43
10 -0.14
11 0.66
12 -0.15
13 -0.15
14 -0.15
15 -0.15
16 0.28
17 -0.15
18 0.28
19 0.27
2 -0.57
20 0.28
21 0.27
22 0.27
3 -0.56
33 0.15
34 0.15
35 0.15
36 0.15
39 0.15
4 -0.81
5 0.2

> <PUBCHEM_EFFECTIVE_ROTOR_COUNT>
12

> <PUBCHEM_PHARMACOPHORE_FEATURES>
5
1 2 acceptor
1 3 acceptor
1 4 cation
5 5 6 7 8 9 rings
6 10 12 13 14 15 17 rings

> <PUBCHEM_HEAVY_ATOM_COUNT>
24

> <PUBCHEM_ATOM_DEF_STEREO_COUNT>
0

> <PUBCHEM_ATOM_UDEF_STEREO_COUNT>
0

> <PUBCHEM_BOND_DEF_STEREO_COUNT>
0

> <PUBCHEM_BOND_UDEF_STEREO_COUNT>
0

> <PUBCHEM_ISOTOPIC_ATOM_COUNT>
0

> <PUBCHEM_COMPONENT_COUNT>
1

> <PUBCHEM_CACTVS_TAUTO_COUNT>
1

> <PUBCHEM_CONFORMER_ID>
00000A0200000001

> <PUBCHEM_MMFF94_ENERGY>
54.6294

> <PUBCHEM_FEATURE_SELFOVERLAP>
25.371

> <PUBCHEM_SHAPE_FINGERPRINT>
10366900 7 17967255304159820827
10764073 3 18194938925366607560
11646440 116 18341623611094970531
12166972 35 17917716816154462707
12778500 126 13479675509439534607
12788726 201 18266747883388495248
13402501 40 18408040702124750149
13533116 47 18199750405197430945
15210252 30 17822583788885997860
15238133 3 18040433287561479746
15274700 256 18411417286261511378
15420108 30 17555153007709772800
1601671 61 18337391543558285011
16067690 210 14490741296922901981
18608769 82 18044667631373121219
21279426 13 18338235942644585285
21285901 2 17987252049104142590
221357 26 18411700989392390183
22289505 5 18410576145747185886
22393880 68 18410853231652305325
3014063 31 18338515235867937225
340366 18 17989210390370626399
508706 21 18186514411302557277
513532 50 18273208703723374402
53794403 172 18046348801821368821

> <PUBCHEM_SHAPE_MULTIPOLES>
471.32
13.64
3.69
1.22
22.99
2.53
0.18
-3.78
3.09
-0.51
-0.87
-1.35
-0.06
1.29

> <PUBCHEM_SHAPE_SELFOVERLAP>
959.942

> <PUBCHEM_SHAPE_VOLUME>
275.8

> <PUBCHEM_COORDINATE_TYPE>
2
5
10

$$$$
