
 OpenBabel04092415483D

 31 35  0  0  1  0  0  0  0  0999 V2000
  -14.2220  -41.2640  -14.1910 C   0  0  0  0  0  1  0  0  0  0  0  0
  -13.5890  -41.0030  -12.8200 C   0  0  1  0  0  3  0  0  0  0  0  0
  -14.5620  -40.2010  -11.9370 C   0  0  0  0  0  2  0  0  0  0  0  0
  -14.0290  -39.9240  -10.4930 C   0  0  1  0  0  0  0  0  0  0  0  0
  -13.5140  -41.2390   -9.8630 C   0  0  0  0  0  2  0  0  0  0  0  0
  -12.5570  -42.0190  -10.7700 C   0  0  0  0  0  2  0  0  0  0  0  0
  -13.1810  -42.3180  -12.1350 C   0  0  1  0  0  3  0  0  0  0  0  0
  -12.8970  -38.8480  -10.5410 C   0  0  0  0  0  2  0  0  0  0  0  0
  -13.6800  -37.5700  -10.4760 C   0  0  0  0  0  0  0  0  0  0  0  0
  -13.2600  -36.3060  -10.8450 C   0  0  0  0  0  3  0  0  0  0  0  0
  -14.1630  -35.2460  -10.7290 C   0  0  0  0  0  3  0  0  0  0  0  0
  -15.4730  -35.4370  -10.2350 C   0  0  0  0  0  0  0  0  0  0  0  0
  -15.8620  -36.7320   -9.8400 C   0  0  0  0  0  3  0  0  0  0  0  0
  -14.9660  -37.7880   -9.9690 C   0  0  0  0  0  0  0  0  0  0  0  0
  -15.1380  -39.2430   -9.6210 C   0  0  1  0  0  0  0  0  0  0  0  0
  -16.5480  -39.8240   -9.6720 C   0  0  0  0  0  2  0  0  0  0  0  0
  -17.0860  -39.6630   -8.3390 O   0  0  0  0  0  0  0  0  0  0  0  0
  -16.0080  -39.5420   -7.5680 C   0  0  1  0  0  3  0  0  0  0  0  0
  -14.8720  -39.3510   -8.1890 N   0  0  0  0  0  0  0  0  0  0  0  0
  -16.1780  -39.6140   -6.2810 N   0  0  0  0  0  0  0  0  0  0  0  0
  -14.0030  -39.2000   -7.6990 H   0  0  0  0  0  0  0  0  0  0  0  0
  -15.4170  -39.5290   -5.6240 H   0  0  0  0  0  0  0  0  0  0  0  0
  -17.1190  -39.7620   -5.9380 H   0  0  0  0  0  0  0  0  0  0  0  0
  -16.4130  -34.3140  -10.1500 C   0  0  0  0  0  0  0  0  0  0  0  0
  -16.0360  -32.9920  -10.3250 C   0  0  0  0  0  3  0  0  0  0  0  0
  -16.8690  -31.9350  -10.2290 N   0  0  0  0  0  0  0  0  0  0  0  0
  -18.1500  -32.2290   -9.9560 C   0  0  0  0  0  3  0  0  0  0  0  0
  -18.6460  -33.4600   -9.7700 N   0  0  0  0  0  0  0  0  0  0  0  0
  -17.7610  -34.4740   -9.8720 C   0  0  0  0  0  3  0  0  0  0  0  0
  -14.3580  -43.1120  -11.9340 O   0  0  0  0  0  0  0  0  0  0  0  0
  -14.2080  -44.0500  -10.8730 C   0  0  0  0  0  1  0  0  0  0  0  0
  2  1  1  6  0  0  0
  2  7  1  0  0  0  0
  2  3  1  0  0  0  0
  4  3  1  6  0  0  0
  4  5  1  0  0  0  0
  4 15  1  0  0  0  0
  6  5  1  0  0  0  0
  7 30  1  1  0  0  0
  7  6  1  0  0  0  0
  8  4  1  0  0  0  0
  8  9  1  0  0  0  0
  9 14  1  0  0  0  0
 10 11  1  0  0  0  0
 10  9  2  0  0  0  0
 11 12  2  0  0  0  0
 12 24  1  0  0  0  0
 12 13  1  0  0  0  0
 14 13  2  0  0  0  0
 14 15  1  0  0  0  0
 15 16  1  6  0  0  0
 15 19  1  0  0  0  0
 16 17  1  0  0  0  0
 17 18  1  0  0  0  0
 18 20  1  1  0  0  0
 19 21  1  0  0  0  0
 19 18  1  0  0  0  0
 20 23  1  0  0  0  0
 20 22  1  0  0  0  0
 24 29  1  0  0  0  0
 25 26  1  0  0  0  0
 25 24  2  0  0  0  0
 26 27  2  0  0  0  0
 27 28  1  0  0  0  0
 29 28  2  0  0  0  0
 30 31  1  0  0  0  0
M  END
>  <minimizedAffinity>
-6.93074608

$$$$
