
 OpenBabel04102406373D

 31 35  0  0  1  0  0  0  0  0999 V2000
  -21.5700  -42.3300   -7.3380 C   0  0  0  0  0  1  0  0  0  0  0  0
  -22.4350  -41.3000   -8.0720 C   0  0  2  0  0  3  0  0  0  0  0  0
  -21.7240  -40.7020   -9.3000 C   0  0  0  0  0  2  0  0  0  0  0  0
  -20.6320  -39.6220   -9.0250 C   0  0  2  0  0  0  0  0  0  0  0  0
  -20.8010  -39.0380   -7.5910 C   0  0  0  0  0  2  0  0  0  0  0  0
  -22.2690  -38.8730   -7.2020 C   0  0  0  0  0  2  0  0  0  0  0  0
  -23.0360  -40.2030   -7.1590 C   0  0  2  0  0  3  0  0  0  0  0  0
  -20.8320  -38.4630  -10.0740 C   0  0  0  0  0  2  0  0  0  0  0  0
  -19.4540  -37.9000  -10.2270 C   0  0  0  0  0  0  0  0  0  0  0  0
  -19.1020  -36.6770  -10.7680 C   0  0  0  0  0  3  0  0  0  0  0  0
  -17.7460  -36.3540  -10.8610 C   0  0  0  0  0  3  0  0  0  0  0  0
  -16.7430  -37.2510  -10.4320 C   0  0  0  0  0  0  0  0  0  0  0  0
  -17.1350  -38.4910   -9.8920 C   0  0  0  0  0  3  0  0  0  0  0  0
  -18.4880  -38.8040   -9.7880 C   0  0  0  0  0  0  0  0  0  0  0  0
  -19.1450  -40.0710   -9.2920 C   0  0  1  0  0  0  0  0  0  0  0  0
  -18.3820  -40.8160   -8.2000 C   0  0  0  0  0  2  0  0  0  0  0  0
  -17.5270  -41.7590   -8.8900 O   0  0  0  0  0  0  0  0  0  0  0  0
  -18.0920  -41.8940  -10.0880 C   0  0  1  0  0  3  0  0  0  0  0  0
  -19.0300  -41.0310  -10.3850 N   0  0  0  0  0  0  0  0  0  0  0  0
  -17.6580  -42.8540  -10.8500 N   0  0  0  0  0  0  0  0  0  0  0  0
  -19.4820  -41.0100  -11.2870 H   0  0  0  0  0  0  0  0  0  0  0  0
  -18.0240  -43.0260  -11.7740 H   0  0  0  0  0  0  0  0  0  0  0  0
  -16.9190  -43.4450  -10.4890 H   0  0  0  0  0  0  0  0  0  0  0  0
  -15.3250  -36.9040  -10.5620 C   0  0  0  0  0  0  0  0  0  0  0  0
  -14.3020  -37.7600  -10.1850 C   0  0  0  0  0  3  0  0  0  0  0  0
  -12.9870  -37.4740  -10.2770 N   0  0  0  0  0  0  0  0  0  0  0  0
  -12.6900  -36.2690  -10.7860 C   0  0  0  0  0  3  0  0  0  0  0  0
  -13.5790  -35.3520  -11.1920 N   0  0  0  0  0  0  0  0  0  0  0  0
  -14.8790  -35.6950  -11.0690 C   0  0  0  0  0  3  0  0  0  0  0  0
  -23.0720  -40.6350   -5.7970 O   0  0  0  0  0  0  0  0  0  0  0  0
  -23.0410  -39.5550   -4.8690 C   0  0  0  0  0  1  0  0  0  0  0  0
  2  1  1  1  0  0  0
  2  7  1  0  0  0  0
  3  4  1  0  0  0  0
  3  2  1  0  0  0  0
  4  8  1  6  0  0  0
  4  5  1  0  0  0  0
  5  6  1  0  0  0  0
  6  7  1  0  0  0  0
  7 30  1  1  0  0  0
  9  8  1  0  0  0  0
  9 14  1  0  0  0  0
 10  9  2  0  0  0  0
 11 10  1  0  0  0  0
 11 12  2  0  0  0  0
 12 13  1  0  0  0  0
 13 14  2  0  0  0  0
 14 15  1  0  0  0  0
 15  4  1  0  0  0  0
 15 16  1  1  0  0  0
 17 16  1  0  0  0  0
 18 20  1  6  0  0  0
 18 17  1  0  0  0  0
 19 18  1  0  0  0  0
 19 15  1  0  0  0  0
 20 23  1  0  0  0  0
 21 19  1  0  0  0  0
 22 20  1  0  0  0  0
 24 12  1  0  0  0  0
 24 25  1  0  0  0  0
 26 25  2  0  0  0  0
 27 26  1  0  0  0  0
 28 29  1  0  0  0  0
 28 27  2  0  0  0  0
 29 24  2  0  0  0  0
 30 31  1  0  0  0  0
M  END
>  <minimizedAffinity>
-9.71332645

$$$$

 OpenBabel04102406373D

 31 35  0  0  1  0  0  0  0  0999 V2000
  -15.7600  -39.0760  -10.7430 C   0  0  0  0  0  1  0  0  0  0  0  0
  -16.1960  -37.8410   -9.9490 C   0  0  2  0  0  3  0  0  0  0  0  0
  -17.0850  -38.1990   -8.7430 C   0  0  0  0  0  2  0  0  0  0  0  0
  -18.5730  -38.5560   -9.0460 C   0  0  2  0  0  0  0  0  0  0  0  0
  -18.9750  -38.0360  -10.4590 C   0  0  0  0  0  2  0  0  0  0  0  0
  -18.3500  -36.6780  -10.7750 C   0  0  0  0  0  2  0  0  0  0  0  0
  -16.8150  -36.7130  -10.8090 C   0  0  2  0  0  3  0  0  0  0  0  0
  -19.4660  -37.8370   -7.9650 C   0  0  0  0  0  2  0  0  0  0  0  0
  -20.6640  -38.7280   -7.8650 C   0  0  0  0  0  0  0  0  0  0  0  0
  -21.8950  -38.4200   -7.3160 C   0  0  0  0  0  3  0  0  0  0  0  0
  -22.8760  -39.4150   -7.2790 C   0  0  0  0  0  3  0  0  0  0  0  0
  -22.6280  -40.7140   -7.7720 C   0  0  0  0  0  0  0  0  0  0  0  0
  -21.3620  -40.9960   -8.3200 C   0  0  0  0  0  3  0  0  0  0  0  0
  -20.3900  -40.0000   -8.3670 C   0  0  0  0  0  0  0  0  0  0  0  0
  -18.9630  -40.0710   -8.8580 C   0  0  1  0  0  0  0  0  0  0  0  0
  -18.7160  -41.0540   -9.9990 C   0  0  0  0  0  2  0  0  0  0  0  0
  -18.3590  -42.3080   -9.3700 O   0  0  0  0  0  0  0  0  0  0  0  0
  -17.9580  -41.9560   -8.1500 C   0  0  1  0  0  3  0  0  0  0  0  0
  -18.2100  -40.7230   -7.7910 N   0  0  0  0  0  0  0  0  0  0  0  0
  -17.3680  -42.8630   -7.4290 N   0  0  0  0  0  0  0  0  0  0  0  0
  -17.9990  -40.3730   -6.8690 H   0  0  0  0  0  0  0  0  0  0  0  0
  -17.0370  -42.6870   -6.4920 H   0  0  0  0  0  0  0  0  0  0  0  0
  -17.2450  -43.7820   -7.8370 H   0  0  0  0  0  0  0  0  0  0  0  0
  -23.6620  -41.7510   -7.7020 C   0  0  0  0  0  0  0  0  0  0  0  0
  -23.8040  -42.6020   -6.6190 C   0  0  0  0  0  3  0  0  0  0  0  0
  -24.7340  -43.5750   -6.5210 N   0  0  0  0  0  0  0  0  0  0  0  0
  -25.5700  -43.6840   -7.5640 C   0  0  0  0  0  3  0  0  0  0  0  0
  -25.5450  -42.9250   -8.6680 N   0  0  0  0  0  0  0  0  0  0  0  0
  -24.5880  -41.9730   -8.7080 C   0  0  0  0  0  3  0  0  0  0  0  0
  -16.4190  -36.8370  -12.1770 O   0  0  0  0  0  0  0  0  0  0  0  0
  -15.4910  -35.8360  -12.5830 C   0  0  0  0  0  1  0  0  0  0  0  0
  2  1  1  6  0  0  0
  2  3  1  0  0  0  0
  4  5  1  6  0  0  0
  4 15  1  0  0  0  0
  4  3  1  0  0  0  0
  4  8  1  0  0  0  0
  6  5  1  0  0  0  0
  7 30  1  6  0  0  0
  7  6  1  0  0  0  0
  7  2  1  0  0  0  0
  8  9  1  0  0  0  0
  9 10  1  0  0  0  0
 10 11  2  0  0  0  0
 12 24  1  0  0  0  0
 12 11  1  0  0  0  0
 13 12  2  0  0  0  0
 14 13  1  0  0  0  0
 14  9  2  0  0  0  0
 15 16  1  6  0  0  0
 15 14  1  0  0  0  0
 15 19  1  0  0  0  0
 16 17  1  0  0  0  0
 17 18  1  0  0  0  0
 18 19  1  0  0  0  0
 18 20  1  1  0  0  0
 19 21  1  0  0  0  0
 20 22  1  0  0  0  0
 23 20  1  0  0  0  0
 24 25  1  0  0  0  0
 25 26  2  0  0  0  0
 27 26  1  0  0  0  0
 28 27  2  0  0  0  0
 29 28  1  0  0  0  0
 29 24  2  0  0  0  0
 31 30  1  0  0  0  0
M  END
>  <minimizedAffinity>
-9.15877628

$$$$

 OpenBabel04102406373D

 31 35  0  0  1  0  0  0  0  0999 V2000
  -12.8130  -39.3140  -10.0420 C   0  0  0  0  0  1  0  0  0  0  0  0
  -13.2620  -37.9540  -10.5860 C   0  0  2  0  0  3  0  0  0  0  0  0
  -14.5470  -37.4440   -9.9070 C   0  0  0  0  0  2  0  0  0  0  0  0
  -15.8900  -38.0930  -10.3620 C   0  0  2  0  0  0  0  0  0  0  0  0
  -15.7060  -38.8060  -11.7350 C   0  0  0  0  0  2  0  0  0  0  0  0
  -14.7840  -38.0270  -12.6720 C   0  0  0  0  0  2  0  0  0  0  0  0
  -13.3550  -37.8810  -12.1290 C   0  0  2  0  0  3  0  0  0  0  0  0
  -16.9480  -36.9380  -10.5240 C   0  0  0  0  0  2  0  0  0  0  0  0
  -18.2490  -37.6250  -10.2520 C   0  0  0  0  0  0  0  0  0  0  0  0
  -19.5180  -37.1760  -10.5670 C   0  0  0  0  0  3  0  0  0  0  0  0
  -20.6150  -37.9530  -10.1840 C   0  0  0  0  0  3  0  0  0  0  0  0
  -20.4500  -39.1640   -9.4770 C   0  0  0  0  0  0  0  0  0  0  0  0
  -19.1440  -39.5900   -9.1660 C   0  0  0  0  0  3  0  0  0  0  0  0
  -18.0530  -38.8210   -9.5610 C   0  0  0  0  0  0  0  0  0  0  0  0
  -16.5800  -39.0420   -9.3100 C   0  0  1  0  0  0  0  0  0  0  0  0
  -16.1460  -40.5030   -9.2230 C   0  0  0  0  0  2  0  0  0  0  0  0
  -16.2430  -40.8610   -7.8240 O   0  0  0  0  0  0  0  0  0  0  0  0
  -16.2110  -39.6930   -7.1860 C   0  0  1  0  0  3  0  0  0  0  0  0
  -16.3470  -38.6240   -7.9300 N   0  0  0  0  0  0  0  0  0  0  0  0
  -16.0610  -39.7190   -5.8950 N   0  0  0  0  0  0  0  0  0  0  0  0
  -16.3930  -37.6950   -7.5410 H   0  0  0  0  0  0  0  0  0  0  0  0
  -16.0310  -38.8830   -5.3320 H   0  0  0  0  0  0  0  0  0  0  0  0
  -15.9730  -40.6240   -5.4500 H   0  0  0  0  0  0  0  0  0  0  0  0
  -21.6140  -39.9520   -9.0620 C   0  0  0  0  0  0  0  0  0  0  0  0
  -22.8710  -39.7950   -9.6250 C   0  0  0  0  0  3  0  0  0  0  0  0
  -23.9680  -40.4910   -9.2640 N   0  0  0  0  0  0  0  0  0  0  0  0
  -23.7840  -41.4000   -8.2950 C   0  0  0  0  0  3  0  0  0  0  0  0
  -22.6260  -41.6550   -7.6720 N   0  0  0  0  0  0  0  0  0  0  0  0
  -21.5660  -40.9210   -8.0740 C   0  0  0  0  0  3  0  0  0  0  0  0
  -12.5580  -38.9000  -12.7380 O   0  0  0  0  0  0  0  0  0  0  0  0
  -13.1730  -39.4790  -13.8840 C   0  0  0  0  0  1  0  0  0  0  0  0
  2  1  1  6  0  0  0
  2  3  1  0  0  0  0
  4  5  1  6  0  0  0
  4  3  1  0  0  0  0
  4 15  1  0  0  0  0
  6  7  1  0  0  0  0
  6  5  1  0  0  0  0
  7 30  1  6  0  0  0
  7  2  1  0  0  0  0
  8  4  1  0  0  0  0
  8  9  1  0  0  0  0
  9 14  1  0  0  0  0
 10  9  2  0  0  0  0
 10 11  1  0  0  0  0
 11 12  2  0  0  0  0
 12 13  1  0  0  0  0
 12 24  1  0  0  0  0
 14 15  1  0  0  0  0
 14 13  2  0  0  0  0
 15 16  1  6  0  0  0
 15 19  1  0  0  0  0
 16 17  1  0  0  0  0
 17 18  1  0  0  0  0
 18 20  1  1  0  0  0
 19 21  1  0  0  0  0
 19 18  1  0  0  0  0
 20 23  1  0  0  0  0
 20 22  1  0  0  0  0
 24 29  1  0  0  0  0
 25 26  1  0  0  0  0
 25 24  2  0  0  0  0
 26 27  2  0  0  0  0
 27 28  1  0  0  0  0
 29 28  2  0  0  0  0
 31 30  1  0  0  0  0
M  END
>  <minimizedAffinity>
-8.6517992

$$$$

 OpenBabel04102406373D

 31 35  0  0  1  0  0  0  0  0999 V2000
  -23.2790  -40.5850   -7.6190 C   0  0  0  0  0  1  0  0  0  0  0  0
  -22.6570  -41.8430   -8.2330 C   0  0  2  0  0  3  0  0  0  0  0  0
  -21.1180  -41.8050   -8.2250 C   0  0  0  0  0  2  0  0  0  0  0  0
  -20.4290  -40.9130   -9.3030 C   0  0  2  0  0  0  0  0  0  0  0  0
  -21.4260  -40.5980  -10.4580 C   0  0  0  0  0  2  0  0  0  0  0  0
  -22.3180  -41.7910  -10.7940 C   0  0  0  0  0  2  0  0  0  0  0  0
  -23.2190  -42.2190   -9.6260 C   0  0  2  0  0  3  0  0  0  0  0  0
  -19.2110  -41.7230   -9.8870 C   0  0  0  0  0  2  0  0  0  0  0  0
  -18.2580  -40.6500  -10.3090 C   0  0  0  0  0  0  0  0  0  0  0  0
  -17.1810  -40.7750  -11.1670 C   0  0  0  0  0  3  0  0  0  0  0  0
  -16.3810  -39.6530  -11.4010 C   0  0  0  0  0  3  0  0  0  0  0  0
  -16.6420  -38.4170  -10.7710 C   0  0  0  0  0  0  0  0  0  0  0  0
  -17.7440  -38.3260   -9.8980 C   0  0  0  0  0  3  0  0  0  0  0  0
  -18.5470  -39.4410   -9.6780 C   0  0  0  0  0  0  0  0  0  0  0  0
  -19.7400  -39.6020   -8.7650 C   0  0  1  0  0  0  0  0  0  0  0  0
  -20.5800  -38.3440   -8.5640 C   0  0  0  0  0  2  0  0  0  0  0  0
  -20.0240  -37.6790   -7.4040 O   0  0  0  0  0  0  0  0  0  0  0  0
  -19.3620  -38.6400   -6.7650 C   0  0  1  0  0  3  0  0  0  0  0  0
  -19.1910  -39.7600   -7.4210 N   0  0  0  0  0  0  0  0  0  0  0  0
  -18.9400  -38.3800   -5.5630 N   0  0  0  0  0  0  0  0  0  0  0  0
  -18.6550  -40.5300   -7.0500 H   0  0  0  0  0  0  0  0  0  0  0  0
  -18.4260  -39.0470   -5.0080 H   0  0  0  0  0  0  0  0  0  0  0  0
  -19.1420  -37.4630   -5.1810 H   0  0  0  0  0  0  0  0  0  0  0  0
  -15.7770  -37.2580  -11.0090 C   0  0  0  0  0  0  0  0  0  0  0  0
  -16.2690  -35.9930  -11.2840 C   0  0  0  0  0  3  0  0  0  0  0  0
  -15.5070  -34.9050  -11.5210 N   0  0  0  0  0  0  0  0  0  0  0  0
  -14.1820  -35.1020  -11.4630 C   0  0  0  0  0  3  0  0  0  0  0  0
  -13.5770  -36.2690  -11.2030 N   0  0  0  0  0  0  0  0  0  0  0  0
  -14.3940  -37.3210  -10.9810 C   0  0  0  0  0  3  0  0  0  0  0  0
  -24.5040  -41.6280   -9.8360 O   0  0  0  0  0  0  0  0  0  0  0  0
  -25.4180  -42.4980  -10.4960 C   0  0  0  0  0  1  0  0  0  0  0  0
  2  3  1  0  0  0  0
  2  1  1  6  0  0  0
  4  5  1  6  0  0  0
  4 15  1  0  0  0  0
  4  3  1  0  0  0  0
  6  5  1  0  0  0  0
  6  7  1  0  0  0  0
  7 30  1  6  0  0  0
  7  2  1  0  0  0  0
  8  4  1  0  0  0  0
  9  8  1  0  0  0  0
  9 14  1  0  0  0  0
 10  9  2  0  0  0  0
 11 10  1  0  0  0  0
 11 12  2  0  0  0  0
 12 13  1  0  0  0  0
 13 14  2  0  0  0  0
 14 15  1  0  0  0  0
 15 16  1  6  0  0  0
 15 19  1  0  0  0  0
 16 17  1  0  0  0  0
 17 18  1  0  0  0  0
 18 20  1  6  0  0  0
 19 21  1  0  0  0  0
 19 18  1  0  0  0  0
 20 23  1  0  0  0  0
 20 22  1  0  0  0  0
 24 29  1  0  0  0  0
 24 12  1  0  0  0  0
 25 24  2  0  0  0  0
 26 27  2  0  0  0  0
 26 25  1  0  0  0  0
 27 28  1  0  0  0  0
 28 29  2  0  0  0  0
 31 30  1  0  0  0  0
M  END
>  <minimizedAffinity>
-8.589715

$$$$

 OpenBabel04102406373D

 31 35  0  0  1  0  0  0  0  0999 V2000
  -22.2720  -37.7590   -8.4580 C   0  0  0  0  0  1  0  0  0  0  0  0
  -21.9640  -39.0420   -7.6800 C   0  0  2  0  0  3  0  0  0  0  0  0
  -20.4520  -39.2850   -7.5190 C   0  0  0  0  0  2  0  0  0  0  0  0
  -19.6890  -39.8330   -8.7640 C   0  0  2  0  0  0  0  0  0  0  0  0
  -20.6940  -40.4530   -9.7810 C   0  0  0  0  0  2  0  0  0  0  0  0
  -21.8290  -41.2040   -9.0880 C   0  0  0  0  0  2  0  0  0  0  0  0
  -22.7000  -40.3000   -8.2030 C   0  0  2  0  0  3  0  0  0  0  0  0
  -18.7070  -40.9590   -8.2660 C   0  0  0  0  0  2  0  0  0  0  0  0
  -17.5970  -40.9130   -9.2690 C   0  0  0  0  0  0  0  0  0  0  0  0
  -16.6400  -41.8810   -9.5070 C   0  0  0  0  0  3  0  0  0  0  0  0
  -15.6550  -41.6240  -10.4650 C   0  0  0  0  0  3  0  0  0  0  0  0
  -15.6150  -40.4030  -11.1720 C   0  0  0  0  0  0  0  0  0  0  0  0
  -16.6020  -39.4360  -10.9020 C   0  0  0  0  0  3  0  0  0  0  0  0
  -17.5900  -39.7000   -9.9570 C   0  0  0  0  0  0  0  0  0  0  0  0
  -18.7130  -38.8150   -9.4690 C   0  0  1  0  0  0  0  0  0  0  0  0
  -19.2680  -37.8380  -10.5010 C   0  0  0  0  0  2  0  0  0  0  0  0
  -18.5000  -36.6210  -10.3460 O   0  0  0  0  0  0  0  0  0  0  0  0
  -17.9920  -36.7120   -9.1190 C   0  0  1  0  0  3  0  0  0  0  0  0
  -18.0990  -37.8780   -8.5330 N   0  0  0  0  0  0  0  0  0  0  0  0
  -17.4310  -35.6490   -8.6230 N   0  0  0  0  0  0  0  0  0  0  0  0
  -17.6990  -38.0680   -7.6270 H   0  0  0  0  0  0  0  0  0  0  0  0
  -17.0150  -35.6290   -7.7040 H   0  0  0  0  0  0  0  0  0  0  0  0
  -17.4160  -34.8140   -9.1950 H   0  0  0  0  0  0  0  0  0  0  0  0
  -14.5590  -40.1430  -12.1560 C   0  0  0  0  0  0  0  0  0  0  0  0
  -14.2680  -41.0100  -13.1970 C   0  0  0  0  0  3  0  0  0  0  0  0
  -13.2980  -40.8130  -14.1140 N   0  0  0  0  0  0  0  0  0  0  0  0
  -12.5970  -39.6780  -13.9800 C   0  0  0  0  0  3  0  0  0  0  0  0
  -12.7780  -38.7550  -13.0250 N   0  0  0  0  0  0  0  0  0  0  0  0
  -13.7590  -39.0130  -12.1340 C   0  0  0  0  0  3  0  0  0  0  0  0
  -23.8550  -39.9370   -8.9640 O   0  0  0  0  0  0  0  0  0  0  0  0
  -24.5560  -41.0620   -9.4840 C   0  0  0  0  0  1  0  0  0  0  0  0
  2  1  1  6  0  0  0
  2  3  1  0  0  0  0
  4  5  1  6  0  0  0
  4  8  1  0  0  0  0
  4  3  1  0  0  0  0
  5  6  1  0  0  0  0
  6  7  1  0  0  0  0
  7 30  1  6  0  0  0
  7  2  1  0  0  0  0
  9  8  1  0  0  0  0
 10  9  1  0  0  0  0
 11 10  2  0  0  0  0
 12 13  2  0  0  0  0
 12 11  1  0  0  0  0
 13 14  1  0  0  0  0
 14 15  1  0  0  0  0
 14  9  2  0  0  0  0
 15 16  1  6  0  0  0
 15  4  1  0  0  0  0
 15 19  1  0  0  0  0
 16 17  1  0  0  0  0
 17 18  1  0  0  0  0
 18 20  1  6  0  0  0
 18 19  1  0  0  0  0
 19 21  1  0  0  0  0
 20 22  1  0  0  0  0
 23 20  1  0  0  0  0
 24 29  1  0  0  0  0
 24 12  1  0  0  0  0
 25 24  2  0  0  0  0
 26 27  2  0  0  0  0
 26 25  1  0  0  0  0
 27 28  1  0  0  0  0
 28 29  2  0  0  0  0
 31 30  1  0  0  0  0
M  END
>  <minimizedAffinity>
-8.4949398

$$$$

 OpenBabel04102406373D

 31 35  0  0  1  0  0  0  0  0999 V2000
  -23.4350  -39.3210   -8.3270 C   0  0  0  0  0  1  0  0  0  0  0  0
  -23.4890  -40.6180   -7.5130 C   0  0  2  0  0  3  0  0  0  0  0  0
  -22.1110  -41.0210   -6.9550 C   0  0  0  0  0  2  0  0  0  0  0  0
  -21.1060  -41.6660   -7.9590 C   0  0  2  0  0  0  0  0  0  0  0  0
  -21.8610  -42.1890   -9.2170 C   0  0  0  0  0  2  0  0  0  0  0  0
  -23.2150  -42.8020   -8.8660 C   0  0  0  0  0  2  0  0  0  0  0  0
  -24.1890  -41.7960   -8.2330 C   0  0  2  0  0  3  0  0  0  0  0  0
  -20.4210  -42.8850   -7.2320 C   0  0  0  0  0  2  0  0  0  0  0  0
  -19.0850  -42.9730   -7.8990 C   0  0  0  0  0  0  0  0  0  0  0  0
  -18.2090  -44.0430   -7.8850 C   0  0  0  0  0  3  0  0  0  0  0  0
  -16.9820  -43.9090   -8.5390 C   0  0  0  0  0  3  0  0  0  0  0  0
  -16.6210  -42.7100   -9.1910 C   0  0  0  0  0  0  0  0  0  0  0  0
  -17.5330  -41.6380   -9.1820 C   0  0  0  0  0  3  0  0  0  0  0  0
  -18.7610  -41.7790   -8.5410 C   0  0  0  0  0  0  0  0  0  0  0  0
  -19.8720  -40.7710   -8.3590 C   0  0  1  0  0  0  0  0  0  0  0  0
  -20.0210  -39.7550   -9.4880 C   0  0  0  0  0  2  0  0  0  0  0  0
  -19.1950  -38.6260   -9.1140 O   0  0  0  0  0  0  0  0  0  0  0  0
  -19.0480  -38.7530   -7.7970 C   0  0  1  0  0  3  0  0  0  0  0  0
  -19.4350  -39.8920   -7.2790 N   0  0  0  0  0  0  0  0  0  0  0  0
  -18.5290  -37.7500   -7.1530 N   0  0  0  0  0  0  0  0  0  0  0  0
  -19.3150  -40.1110   -6.3020 H   0  0  0  0  0  0  0  0  0  0  0  0
  -18.3760  -37.7610   -6.1560 H   0  0  0  0  0  0  0  0  0  0  0  0
  -18.2710  -36.9300   -7.6880 H   0  0  0  0  0  0  0  0  0  0  0  0
  -15.3180  -42.5810   -9.8510 C   0  0  0  0  0  0  0  0  0  0  0  0
  -14.9380  -43.3620  -10.9290 C   0  0  0  0  0  3  0  0  0  0  0  0
  -13.7450  -43.2820  -11.5560 N   0  0  0  0  0  0  0  0  0  0  0  0
  -12.9010  -42.3570  -11.0770 C   0  0  0  0  0  3  0  0  0  0  0  0
  -13.1440  -41.5360  -10.0470 N   0  0  0  0  0  0  0  0  0  0  0  0
  -14.3520  -41.6690   -9.4580 C   0  0  0  0  0  3  0  0  0  0  0  0
  -25.0500  -41.3210   -9.2710 O   0  0  0  0  0  0  0  0  0  0  0  0
  -25.7430  -42.3680   -9.9430 C   0  0  0  0  0  1  0  0  0  0  0  0
  2  1  1  6  0  0  0
  2  3  1  0  0  0  0
  4  5  1  6  0  0  0
  4  8  1  0  0  0  0
  4  3  1  0  0  0  0
  5  6  1  0  0  0  0
  6  7  1  0  0  0  0
  7 30  1  6  0  0  0
  7  2  1  0  0  0  0
  9 10  1  0  0  0  0
  9  8  1  0  0  0  0
 11 10  2  0  0  0  0
 12 13  2  0  0  0  0
 12 11  1  0  0  0  0
 13 14  1  0  0  0  0
 14 15  1  0  0  0  0
 14  9  2  0  0  0  0
 15 16  1  6  0  0  0
 15  4  1  0  0  0  0
 15 19  1  0  0  0  0
 16 17  1  0  0  0  0
 17 18  1  0  0  0  0
 18 19  1  0  0  0  0
 18 20  1  6  0  0  0
 19 21  1  0  0  0  0
 20 22  1  0  0  0  0
 23 20  1  0  0  0  0
 24 29  1  0  0  0  0
 24 12  1  0  0  0  0
 25 24  2  0  0  0  0
 26 27  2  0  0  0  0
 26 25  1  0  0  0  0
 27 28  1  0  0  0  0
 28 29  2  0  0  0  0
 31 30  1  0  0  0  0
M  END
>  <minimizedAffinity>
-7.5558567

$$$$

 OpenBabel04102406373D

 31 35  0  0  1  0  0  0  0  0999 V2000
  -20.1910  -43.9710   -7.3090 C   0  0  0  0  0  1  0  0  0  0  0  0
  -21.4150  -43.1780   -7.7790 C   0  0  2  0  0  3  0  0  0  0  0  0
  -21.1170  -42.3120   -9.0170 C   0  0  0  0  0  2  0  0  0  0  0  0
  -20.3250  -40.9900   -8.7780 C   0  0  2  0  0  0  0  0  0  0  0  0
  -20.3910  -40.5870   -7.2740 C   0  0  0  0  0  2  0  0  0  0  0  0
  -21.7580  -40.8760   -6.6570 C   0  0  0  0  0  2  0  0  0  0  0  0
  -22.1200  -42.3690   -6.6630 C   0  0  2  0  0  3  0  0  0  0  0  0
  -21.0080  -39.8610   -9.6390 C   0  0  0  0  0  2  0  0  0  0  0  0
  -19.8800  -38.9200   -9.9240 C   0  0  0  0  0  0  0  0  0  0  0  0
  -19.9700  -37.6110  -10.3590 C   0  0  0  0  0  3  0  0  0  0  0  0
  -18.7880  -36.9090  -10.6110 C   0  0  0  0  0  3  0  0  0  0  0  0
  -17.5230  -37.5120  -10.4450 C   0  0  0  0  0  0  0  0  0  0  0  0
  -17.4670  -38.8490  -10.0060 C   0  0  0  0  0  3  0  0  0  0  0  0
  -18.6460  -39.5420   -9.7430 C   0  0  0  0  0  0  0  0  0  0  0  0
  -18.8420  -40.9760   -9.3120 C   0  0  1  0  0  0  0  0  0  0  0  0
  -17.7290  -41.5530   -8.4420 C   0  0  0  0  0  2  0  0  0  0  0  0
  -16.7860  -42.1590   -9.3580 O   0  0  0  0  0  0  0  0  0  0  0  0
  -17.4940  -42.3590  -10.4670 C   0  0  1  0  0  3  0  0  0  0  0  0
  -18.6660  -41.7790  -10.5180 N   0  0  0  0  0  0  0  0  0  0  0  0
  -16.9580  -43.0960  -11.3950 N   0  0  0  0  0  0  0  0  0  0  0  0
  -19.2570  -41.8210  -11.3350 H   0  0  0  0  0  0  0  0  0  0  0  0
  -17.4200  -43.2960  -12.2690 H   0  0  0  0  0  0  0  0  0  0  0  0
  -16.0360  -43.4780  -11.2190 H   0  0  0  0  0  0  0  0  0  0  0  0
  -16.2950  -36.7670  -10.7390 C   0  0  0  0  0  0  0  0  0  0  0  0
  -16.2540  -35.3850  -10.8250 C   0  0  0  0  0  3  0  0  0  0  0  0
  -15.1480  -34.6640  -11.1040 N   0  0  0  0  0  0  0  0  0  0  0  0
  -14.0260  -35.3740  -11.2920 C   0  0  0  0  0  3  0  0  0  0  0  0
  -13.9270  -36.7090  -11.2330 N   0  0  0  0  0  0  0  0  0  0  0  0
  -15.0690  -37.3730  -10.9560 C   0  0  0  0  0  3  0  0  0  0  0  0
  -21.8000  -42.8930   -5.3720 O   0  0  0  0  0  0  0  0  0  0  0  0
  -20.5840  -43.6340   -5.3560 C   0  0  0  0  0  1  0  0  0  0  0  0
  2  1  1  1  0  0  0
  2  7  1  0  0  0  0
  3  4  1  0  0  0  0
  3  2  1  0  0  0  0
  4  8  1  6  0  0  0
  4  5  1  0  0  0  0
  5  6  1  0  0  0  0
  7  6  1  0  0  0  0
  7 30  1  1  0  0  0
  9 14  1  0  0  0  0
  9  8  1  0  0  0  0
 10  9  2  0  0  0  0
 11 12  2  0  0  0  0
 11 10  1  0  0  0  0
 12 13  1  0  0  0  0
 13 14  2  0  0  0  0
 14 15  1  0  0  0  0
 15  4  1  0  0  0  0
 15 16  1  1  0  0  0
 17 16  1  0  0  0  0
 18 20  1  6  0  0  0
 18 17  1  0  0  0  0
 19 18  1  0  0  0  0
 19 15  1  0  0  0  0
 20 23  1  0  0  0  0
 21 19  1  0  0  0  0
 22 20  1  0  0  0  0
 24 12  1  0  0  0  0
 25 24  1  0  0  0  0
 26 25  2  0  0  0  0
 27 28  2  0  0  0  0
 27 26  1  0  0  0  0
 28 29  1  0  0  0  0
 29 24  2  0  0  0  0
 30 31  1  0  0  0  0
M  END
>  <minimizedAffinity>
-6.71787691

$$$$
