
 OpenBabel04092415483D

 31 35  0  0  1  0  0  0  0  0999 V2000
  -15.7870  -36.5040  -13.5320 C   0  0  0  0  0  1  0  0  0  0  0  0
  -15.9180  -36.4930  -12.0050 C   0  0  1  0  0  3  0  0  0  0  0  0
  -16.5840  -37.7960  -11.5270 C   0  0  0  0  0  2  0  0  0  0  0  0
  -16.7180  -37.9070   -9.9730 C   0  0  1  0  0  0  0  0  0  0  0  0
  -15.3610  -37.5880   -9.3040 C   0  0  0  0  0  2  0  0  0  0  0  0
  -14.7190  -36.2920   -9.8090 C   0  0  0  0  0  2  0  0  0  0  0  0
  -14.5500  -36.2940  -11.3310 C   0  0  1  0  0  3  0  0  0  0  0  0
  -17.8320  -36.9360   -9.4640 C   0  0  0  0  0  2  0  0  0  0  0  0
  -19.0660  -37.7750   -9.6120 C   0  0  0  0  0  0  0  0  0  0  0  0
  -20.3770  -37.3410   -9.6680 C   0  0  0  0  0  3  0  0  0  0  0  0
  -21.3860  -38.2930   -9.8370 C   0  0  0  0  0  3  0  0  0  0  0  0
  -21.0960  -39.6730   -9.9340 C   0  0  0  0  0  0  0  0  0  0  0  0
  -19.7530  -40.0860   -9.8450 C   0  0  0  0  0  3  0  0  0  0  0  0
  -18.7500  -39.1360   -9.6900 C   0  0  0  0  0  0  0  0  0  0  0  0
  -17.2590  -39.3210   -9.5690 C   0  0  1  0  0  0  0  0  0  0  0  0
  -16.6380  -40.5440  -10.2380 C   0  0  0  0  0  2  0  0  0  0  0  0
  -16.6330  -41.5810   -9.2280 O   0  0  0  0  0  0  0  0  0  0  0  0
  -16.7060  -40.9130   -8.0790 C   0  0  1  0  0  3  0  0  0  0  0  0
  -17.0040  -39.6410   -8.1680 N   0  0  0  0  0  0  0  0  0  0  0  0
  -16.4870  -41.5770   -6.9830 N   0  0  0  0  0  0  0  0  0  0  0  0
  -17.1300  -39.0550   -7.3560 H   0  0  0  0  0  0  0  0  0  0  0  0
  -16.5260  -41.1500   -6.0690 H   0  0  0  0  0  0  0  0  0  0  0  0
  -16.2700  -42.5620   -7.0650 H   0  0  0  0  0  0  0  0  0  0  0  0
  -22.1700  -40.6510  -10.1400 C   0  0  0  0  0  0  0  0  0  0  0  0
  -22.2410  -41.4780  -11.2500 C   0  0  0  0  0  3  0  0  0  0  0  0
  -23.2260  -42.3700  -11.4810 N   0  0  0  0  0  0  0  0  0  0  0  0
  -24.1800  -42.4400  -10.5400 C   0  0  0  0  0  3  0  0  0  0  0  0
  -24.2270  -41.7040   -9.4210 N   0  0  0  0  0  0  0  0  0  0  0  0
  -23.2160  -40.8260   -9.2500 C   0  0  0  0  0  3  0  0  0  0  0  0
  -13.6990  -37.3880  -11.6930 O   0  0  0  0  0  0  0  0  0  0  0  0
  -12.5610  -37.4990  -10.8440 C   0  0  0  0  0  1  0  0  0  0  0  0
  2  1  1  6  0  0  0
  2  3  1  0  0  0  0
  2  7  1  0  0  0  0
  4  3  1  6  0  0  0
  4 15  1  0  0  0  0
  4  8  1  0  0  0  0
  4  5  1  0  0  0  0
  6  5  1  0  0  0  0
  7 30  1  1  0  0  0
  7  6  1  0  0  0  0
  9  8  1  0  0  0  0
 10  9  1  0  0  0  0
 11 10  2  0  0  0  0
 12 13  2  0  0  0  0
 12 11  1  0  0  0  0
 13 14  1  0  0  0  0
 14  9  2  0  0  0  0
 14 15  1  0  0  0  0
 15 16  1  6  0  0  0
 15 19  1  0  0  0  0
 16 17  1  0  0  0  0
 17 18  1  0  0  0  0
 18 20  1  1  0  0  0
 19 18  1  0  0  0  0
 19 21  1  0  0  0  0
 20 22  1  0  0  0  0
 23 20  1  0  0  0  0
 24 12  1  0  0  0  0
 24 29  1  0  0  0  0
 25 24  2  0  0  0  0
 26 25  1  0  0  0  0
 26 27  2  0  0  0  0
 27 28  1  0  0  0  0
 28 29  2  0  0  0  0
 30 31  1  0  0  0  0
M  END
>  <minimizedAffinity>
-7.58618975

$$$$
