
 OpenBabel04092415483D

 31 35  0  0  1  0  0  0  0  0999 V2000
  -18.5670  -36.1560  -11.5350 C   0  0  0  0  0  1  0  0  0  0  0  0
  -18.1000  -36.7580  -10.2060 C   0  0  1  0  0  3  0  0  0  0  0  0
  -18.6650  -38.1820  -10.0490 C   0  0  0  0  0  2  0  0  0  0  0  0
  -18.2030  -38.9080   -8.7430 C   0  0  1  0  0  0  0  0  0  0  0  0
  -16.6680  -38.7990   -8.5950 C   0  0  0  0  0  2  0  0  0  0  0  0
  -16.1360  -37.3730   -8.7690 C   0  0  0  0  0  2  0  0  0  0  0  0
  -16.5650  -36.7620  -10.1050 C   0  0  1  0  0  3  0  0  0  0  0  0
  -18.9270  -38.2860   -7.5040 C   0  0  0  0  0  2  0  0  0  0  0  0
  -20.2050  -39.0700   -7.4650 C   0  0  0  0  0  0  0  0  0  0  0  0
  -21.3830  -38.7290   -6.8290 C   0  0  0  0  0  3  0  0  0  0  0  0
  -22.4740  -39.5950   -6.9400 C   0  0  0  0  0  3  0  0  0  0  0  0
  -22.3920  -40.8030   -7.6690 C   0  0  0  0  0  0  0  0  0  0  0  0
  -21.1690  -41.1370   -8.2830 C   0  0  0  0  0  3  0  0  0  0  0  0
  -20.0890  -40.2670   -8.1810 C   0  0  0  0  0  0  0  0  0  0  0  0
  -18.6950  -40.3950   -8.7390 C   0  0  1  0  0  0  0  0  0  0  0  0
  -18.5120  -41.2130  -10.0140 C   0  0  0  0  0  2  0  0  0  0  0  0
  -18.2300  -42.5630   -9.5750 O   0  0  0  0  0  0  0  0  0  0  0  0
  -17.7840  -42.4110   -8.3290 C   0  0  1  0  0  3  0  0  0  0  0  0
  -17.9570  -41.2290   -7.7950 N   0  0  0  0  0  0  0  0  0  0  0  0
  -17.2330  -43.4410   -7.7580 N   0  0  0  0  0  0  0  0  0  0  0  0
  -17.6990  -41.0210   -6.8420 H   0  0  0  0  0  0  0  0  0  0  0  0
  -16.8720  -43.4140   -6.8160 H   0  0  0  0  0  0  0  0  0  0  0  0
  -17.1700  -44.2980   -8.2930 H   0  0  0  0  0  0  0  0  0  0  0  0
  -23.5590  -41.6820   -7.7960 C   0  0  0  0  0  0  0  0  0  0  0  0
  -23.9220  -42.6080   -6.8320 C   0  0  0  0  0  3  0  0  0  0  0  0
  -24.9740  -43.4470   -6.9290 N   0  0  0  0  0  0  0  0  0  0  0  0
  -25.7030  -43.3370   -8.0500 C   0  0  0  0  0  3  0  0  0  0  0  0
  -25.4660  -42.4830   -9.0550 N   0  0  0  0  0  0  0  0  0  0  0  0
  -24.3960  -41.6740   -8.9000 C   0  0  0  0  0  3  0  0  0  0  0  0
  -16.0400  -37.5690  -11.1650 O   0  0  0  0  0  0  0  0  0  0  0  0
  -14.8210  -37.0530  -11.6920 C   0  0  0  0  0  1  0  0  0  0  0  0
  2  1  1  6  0  0  0
  2  7  1  0  0  0  0
  2  3  1  0  0  0  0
  4  3  1  6  0  0  0
  4 15  1  0  0  0  0
  4  5  1  0  0  0  0
  4  8  1  0  0  0  0
  6  5  1  0  0  0  0
  7 30  1  6  0  0  0
  7  6  1  0  0  0  0
  8  9  1  0  0  0  0
  9 10  1  0  0  0  0
 11 10  2  0  0  0  0
 12 11  1  0  0  0  0
 13 14  1  0  0  0  0
 13 12  2  0  0  0  0
 14  9  2  0  0  0  0
 15 16  1  6  0  0  0
 15 14  1  0  0  0  0
 15 19  1  0  0  0  0
 16 17  1  0  0  0  0
 17 18  1  0  0  0  0
 18 19  1  0  0  0  0
 18 20  1  1  0  0  0
 19 21  1  0  0  0  0
 20 22  1  0  0  0  0
 23 20  1  0  0  0  0
 24 12  1  0  0  0  0
 24 25  1  0  0  0  0
 26 25  2  0  0  0  0
 27 26  1  0  0  0  0
 28 29  1  0  0  0  0
 28 27  2  0  0  0  0
 29 24  2  0  0  0  0
 31 30  1  0  0  0  0
M  END
>  <minimizedAffinity>
-8.5476923

$$$$
