
 OpenBabel04092415483D

 31 35  0  0  1  0  0  0  0  0999 V2000
  -21.8300  -41.9450   -9.3470 C   0  0  0  0  0  1  0  0  0  0  0  0
  -20.8640  -41.1520   -8.4600 C   0  0  1  0  0  3  0  0  0  0  0  0
  -19.9320  -40.2950   -9.3360 C   0  0  0  0  0  2  0  0  0  0  0  0
  -18.9370  -39.4040   -8.5210 C   0  0  1  0  0  0  0  0  0  0  0  0
  -19.7050  -38.6210   -7.4310 C   0  0  0  0  0  2  0  0  0  0  0  0
  -20.6320  -39.4990   -6.5850 C   0  0  0  0  0  2  0  0  0  0  0  0
  -21.6270  -40.2780   -7.4500 C   0  0  1  0  0  3  0  0  0  0  0  0
  -17.8220  -40.2960   -7.8850 C   0  0  0  0  0  2  0  0  0  0  0  0
  -16.8150  -40.3730   -8.9950 C   0  0  0  0  0  0  0  0  0  0  0  0
  -15.8090  -41.3060   -9.1540 C   0  0  0  0  0  3  0  0  0  0  0  0
  -14.9890  -41.2130  -10.2830 C   0  0  0  0  0  3  0  0  0  0  0  0
  -15.1590  -40.1890  -11.2420 C   0  0  0  0  0  0  0  0  0  0  0  0
  -16.1760  -39.2360  -11.0360 C   0  0  0  0  0  3  0  0  0  0  0  0
  -16.9980  -39.3390   -9.9190 C   0  0  0  0  0  0  0  0  0  0  0  0
  -18.1390  -38.4570   -9.4800 C   0  0  1  0  0  0  0  0  0  0  0  0
  -18.9160  -37.7100  -10.5600 C   0  0  0  0  0  2  0  0  0  0  0  0
  -18.2600  -36.4280  -10.6980 O   0  0  0  0  0  0  0  0  0  0  0  0
  -17.6130  -36.2710   -9.5440 C   0  0  1  0  0  3  0  0  0  0  0  0
  -17.5320  -37.3290   -8.7790 N   0  0  0  0  0  0  0  0  0  0  0  0
  -17.1180  -35.0960   -9.2880 N   0  0  0  0  0  0  0  0  0  0  0  0
  -17.0240  -37.3320   -7.9080 H   0  0  0  0  0  0  0  0  0  0  0  0
  -16.6100  -34.8910   -8.4410 H   0  0  0  0  0  0  0  0  0  0  0  0
  -17.2540  -34.3670   -9.9770 H   0  0  0  0  0  0  0  0  0  0  0  0
  -14.3060  -40.1290  -12.4330 C   0  0  0  0  0  0  0  0  0  0  0  0
  -13.6060  -38.9940  -12.8090 C   0  0  0  0  0  3  0  0  0  0  0  0
  -12.8320  -38.8980  -13.9110 N   0  0  0  0  0  0  0  0  0  0  0  0
  -12.7510  -40.0060  -14.6620 C   0  0  0  0  0  3  0  0  0  0  0  0
  -13.3720  -41.1680  -14.4100 N   0  0  0  0  0  0  0  0  0  0  0  0
  -14.1350  -41.1980  -13.2970 C   0  0  0  0  0  3  0  0  0  0  0  0
  -22.4330  -39.3400   -8.1740 O   0  0  0  0  0  0  0  0  0  0  0  0
  -23.8220  -39.4880   -7.8990 C   0  0  0  0  0  1  0  0  0  0  0  0
  2  1  1  6  0  0  0
  2  7  1  0  0  0  0
  3  2  1  0  0  0  0
  4  3  1  6  0  0  0
  4  8  1  0  0  0  0
  4  5  1  0  0  0  0
  5  6  1  0  0  0  0
  7 30  1  6  0  0  0
  7  6  1  0  0  0  0
  9  8  1  0  0  0  0
 10  9  1  0  0  0  0
 11 10  2  0  0  0  0
 12 13  2  0  0  0  0
 12 11  1  0  0  0  0
 13 14  1  0  0  0  0
 14 15  1  0  0  0  0
 14  9  2  0  0  0  0
 15 16  1  6  0  0  0
 15 19  1  0  0  0  0
 15  4  1  0  0  0  0
 17 16  1  0  0  0  0
 17 18  1  0  0  0  0
 18 20  1  6  0  0  0
 18 19  1  0  0  0  0
 19 21  1  0  0  0  0
 20 22  1  0  0  0  0
 23 20  1  0  0  0  0
 24 12  1  0  0  0  0
 25 24  1  0  0  0  0
 26 25  2  0  0  0  0
 27 28  2  0  0  0  0
 27 26  1  0  0  0  0
 28 29  1  0  0  0  0
 29 24  2  0  0  0  0
 30 31  1  0  0  0  0
M  END
>  <minimizedAffinity>
-7.98759174

$$$$
