
 OpenBabel04092415483D

 31 35  0  0  1  0  0  0  0  0999 V2000
  -22.7220  -39.2060   -5.9640 C   0  0  0  0  0  1  0  0  0  0  0  0
  -21.9470  -39.8980   -7.0910 C   0  0  1  0  0  3  0  0  0  0  0  0
  -20.5390  -39.2860   -7.2100 C   0  0  0  0  0  2  0  0  0  0  0  0
  -19.6440  -39.9590   -8.3020 C   0  0  1  0  0  0  0  0  0  0  0  0
  -19.6710  -41.4960   -8.1290 C   0  0  0  0  0  2  0  0  0  0  0  0
  -21.0850  -42.0720   -8.0010 C   0  0  0  0  0  2  0  0  0  0  0  0
  -21.8680  -41.4170   -6.8610 C   0  0  1  0  0  3  0  0  0  0  0  0
  -20.1430  -39.5500   -9.7260 C   0  0  0  0  0  2  0  0  0  0  0  0
  -19.4130  -38.2590   -9.9510 C   0  0  0  0  0  0  0  0  0  0  0  0
  -19.7250  -37.2630  -10.8570 C   0  0  0  0  0  3  0  0  0  0  0  0
  -18.9240  -36.1180  -10.8880 C   0  0  0  0  0  3  0  0  0  0  0  0
  -17.8090  -35.9690  -10.0330 C   0  0  0  0  0  0  0  0  0  0  0  0
  -17.5010  -37.0130   -9.1400 C   0  0  0  0  0  3  0  0  0  0  0  0
  -18.3070  -38.1460   -9.1020 C   0  0  0  0  0  0  0  0  0  0  0  0
  -18.1890  -39.3830   -8.2500 C   0  0  1  0  0  0  0  0  0  0  0  0
  -17.5210  -39.2440   -6.8850 C   0  0  0  0  0  2  0  0  0  0  0  0
  -16.1180  -39.5220   -7.1060 O   0  0  0  0  0  0  0  0  0  0  0  0
  -16.1030  -40.2250   -8.2360 C   0  0  1  0  0  3  0  0  0  0  0  0
  -17.2190  -40.2440   -8.9200 N   0  0  0  0  0  0  0  0  0  0  0  0
  -14.9900  -40.8140   -8.5630 N   0  0  0  0  0  0  0  0  0  0  0  0
  -17.3000  -40.7070   -9.8130 H   0  0  0  0  0  0  0  0  0  0  0  0
  -14.8890  -41.3620   -9.4040 H   0  0  0  0  0  0  0  0  0  0  0  0
  -14.2010  -40.7090   -7.9370 H   0  0  0  0  0  0  0  0  0  0  0  0
  -17.0000  -34.7450  -10.0630 C   0  0  0  0  0  0  0  0  0  0  0  0
  -15.8740  -34.5990  -10.8560 C   0  0  0  0  0  3  0  0  0  0  0  0
  -15.0950  -33.4970  -10.8890 N   0  0  0  0  0  0  0  0  0  0  0  0
  -15.4800  -32.4890  -10.0920 C   0  0  0  0  0  3  0  0  0  0  0  0
  -16.5490  -32.4990   -9.2820 N   0  0  0  0  0  0  0  0  0  0  0  0
  -17.2840  -33.6310   -9.2900 C   0  0  0  0  0  3  0  0  0  0  0  0
  -21.1710  -41.6580   -5.6320 O   0  0  0  0  0  0  0  0  0  0  0  0
  -21.8320  -42.6130   -4.8090 C   0  0  0  0  0  1  0  0  0  0  0  0
  2  7  1  0  0  0  0
  2  1  1  1  0  0  0
  3  2  1  0  0  0  0
  4  8  1  6  0  0  0
  4 15  1  0  0  0  0
  4  5  1  0  0  0  0
  4  3  1  0  0  0  0
  5  6  1  0  0  0  0
  6  7  1  0  0  0  0
  7 30  1  1  0  0  0
  9  8  1  0  0  0  0
  9 14  1  0  0  0  0
 10  9  2  0  0  0  0
 11 10  1  0  0  0  0
 11 12  2  0  0  0  0
 12 13  1  0  0  0  0
 13 14  2  0  0  0  0
 14 15  1  0  0  0  0
 15 16  1  1  0  0  0
 17 16  1  0  0  0  0
 18 20  1  6  0  0  0
 18 17  1  0  0  0  0
 19 15  1  0  0  0  0
 19 18  1  0  0  0  0
 20 23  1  0  0  0  0
 21 19  1  0  0  0  0
 22 20  1  0  0  0  0
 24 12  1  0  0  0  0
 24 29  1  0  0  0  0
 25 24  2  0  0  0  0
 26 25  1  0  0  0  0
 26 27  2  0  0  0  0
 27 28  1  0  0  0  0
 29 28  2  0  0  0  0
 30 31  1  0  0  0  0
M  END
>  <minimizedAffinity>
-9.08294392

$$$$
