72712537
  -OEChem-04102423333D

 38 41  0     1  0  0  0  0  0999 V2000
   -3.5070   -0.7795   -1.2543 O   0  0  0  0  0  0  0  0  0  0  0  0
   -2.3507   -2.6400    0.8162 O   0  0  0  0  0  0  0  0  0  0  0  0
   -3.1050    1.1511   -0.1193 N   0  0  0  0  0  0  0  0  0  0  0  0
   -5.0632    0.8771   -1.4670 N   0  0  0  0  0  0  0  0  0  0  0  0
    5.2373    0.0966   -0.8599 N   0  0  0  0  0  0  0  0  0  0  0  0
    4.2097   -1.9194   -0.0314 N   0  0  0  0  0  0  0  0  0  0  0  0
   -2.0224    0.1966    0.2509 C   0  0  2  0  0  0  0  0  0  0  0  0
   -2.1349   -0.8622   -0.8617 C   0  0  1  0  0  0  0  0  0  0  0  0
   -2.4002   -0.3853    1.6390 C   0  0  0  0  0  0  0  0  0  0  0  0
   -1.8165   -2.2998   -0.4601 C   0  0  0  0  0  0  0  0  0  0  0  0
   -0.6741    0.9135    0.3353 C   0  0  0  0  0  0  0  0  0  0  0  0
   -1.8510   -1.7876    1.8417 C   0  0  0  0  0  0  0  0  0  0  0  0
   -3.8850    0.4829   -0.9101 C   0  0  0  0  0  0  0  0  0  0  0  0
    0.5066    0.2109    0.0942 C   0  0  0  0  0  0  0  0  0  0  0  0
   -0.6254    2.2712    0.6521 C   0  0  0  0  0  0  0  0  0  0  0  0
    1.7359    0.8658    0.1701 C   0  0  0  0  0  0  0  0  0  0  0  0
    0.6039    2.9262    0.7276 C   0  0  0  0  0  0  0  0  0  0  0  0
    1.7846    2.2235    0.4869 C   0  0  0  0  0  0  0  0  0  0  0  0
    2.9605    0.1374   -0.0804 C   0  0  0  0  0  0  0  0  0  0  0  0
    4.0804    0.7446   -0.6109 C   0  0  0  0  0  0  0  0  0  0  0  0
    3.0843   -1.2096    0.1923 C   0  0  0  0  0  0  0  0  0  0  0  0
    5.2324   -1.2140   -0.5511 C   0  0  0  0  0  0  0  0  0  0  0  0
   -1.5477   -0.5992   -1.7513 H   0  0  0  0  0  0  0  0  0  0  0  0
   -3.4943   -0.4469    1.7222 H   0  0  0  0  0  0  0  0  0  0  0  0
   -2.0685    0.2713    2.4526 H   0  0  0  0  0  0  0  0  0  0  0  0
   -2.2652   -2.9919   -1.1813 H   0  0  0  0  0  0  0  0  0  0  0  0
   -0.7425   -2.5039   -0.4524 H   0  0  0  0  0  0  0  0  0  0  0  0
   -0.7562   -1.8132    1.8602 H   0  0  0  0  0  0  0  0  0  0  0  0
   -2.2024   -2.1839    2.7999 H   0  0  0  0  0  0  0  0  0  0  0  0
    0.4680   -0.8357   -0.1723 H   0  0  0  0  0  0  0  0  0  0  0  0
   -1.5261    2.8414    0.8603 H   0  0  0  0  0  0  0  0  0  0  0  0
    0.6420    3.9812    0.9829 H   0  0  0  0  0  0  0  0  0  0  0  0
    2.7217    2.7655    0.5803 H   0  0  0  0  0  0  0  0  0  0  0  0
   -5.4494    1.7976   -1.2876 H   0  0  0  0  0  0  0  0  0  0  0  0
   -5.5897    0.2621   -2.0778 H   0  0  0  0  0  0  0  0  0  0  0  0
    4.1062    1.7924   -0.8924 H   0  0  0  0  0  0  0  0  0  0  0  0
    2.2872   -1.7987    0.6345 H   0  0  0  0  0  0  0  0  0  0  0  0
    6.1488   -1.7592   -0.7410 H   0  0  0  0  0  0  0  0  0  0  0  0
  1  8  1  0  0  0  0
  1 13  1  0  0  0  0
  2 10  1  0  0  0  0
  2 12  1  0  0  0  0
  3  7  1  0  0  0  0
  3 13  2  0  0  0  0
  4 13  1  0  0  0  0
  4 34  1  0  0  0  0
  4 35  1  0  0  0  0
  5 20  2  0  0  0  0
  5 22  1  0  0  0  0
  6 21  1  0  0  0  0
  6 22  2  0  0  0  0
  7  8  1  0  0  0  0
  7  9  1  0  0  0  0
  7 11  1  0  0  0  0
  8 10  1  0  0  0  0
  8 23  1  0  0  0  0
  9 12  1  0  0  0  0
  9 24  1  0  0  0  0
  9 25  1  0  0  0  0
 10 26  1  0  0  0  0
 10 27  1  0  0  0  0
 11 14  1  0  0  0  0
 11 15  2  0  0  0  0
 12 28  1  0  0  0  0
 12 29  1  0  0  0  0
 14 16  2  0  0  0  0
 14 30  1  0  0  0  0
 15 17  1  0  0  0  0
 15 31  1  0  0  0  0
 16 18  1  0  0  0  0
 16 19  1  0  0  0  0
 17 18  2  0  0  0  0
 17 32  1  0  0  0  0
 18 33  1  0  0  0  0
 19 20  1  0  0  0  0
 19 21  2  0  0  0  0
 20 36  1  0  0  0  0
 21 37  1  0  0  0  0
 22 38  1  0  0  0  0
M  END
> <PUBCHEM_COMPOUND_CID>
72712537

> <PUBCHEM_CONFORMER_RMSD>
0.6

> <PUBCHEM_CONFORMER_DIVERSEORDER>
1
14
17
2
12
8
11
9
4
3
10
7
13
15
5
16
6

> <PUBCHEM_MMFF94_PARTIAL_CHARGES>
28
1 -0.43
10 0.28
11 -0.14
12 0.28
13 0.65
14 -0.15
15 -0.15
17 -0.15
18 -0.15
2 -0.56
20 0.16
21 0.16
22 0.47
3 -0.7
30 0.15
31 0.15
32 0.15
33 0.15
34 0.4
35 0.4
36 0.15
37 0.15
38 0.15
4 -0.85
5 -0.62
6 -0.62
7 0.39
8 0.28

> <PUBCHEM_EFFECTIVE_ROTOR_COUNT>
3

> <PUBCHEM_PHARMACOPHORE_FEATURES>
9
1 2 acceptor
1 4 donor
1 5 acceptor
3 3 4 13 cation
3 5 6 22 cation
5 1 3 7 8 13 rings
6 11 14 15 16 17 18 rings
6 2 7 8 9 10 12 rings
6 5 6 19 20 21 22 rings

> <PUBCHEM_HEAVY_ATOM_COUNT>
22

> <PUBCHEM_ATOM_DEF_STEREO_COUNT>
2

> <PUBCHEM_ATOM_UDEF_STEREO_COUNT>
0

> <PUBCHEM_BOND_DEF_STEREO_COUNT>
0

> <PUBCHEM_BOND_UDEF_STEREO_COUNT>
0

> <PUBCHEM_ISOTOPIC_ATOM_COUNT>
0

> <PUBCHEM_COMPONENT_COUNT>
1

> <PUBCHEM_CACTVS_TAUTO_COUNT>
2

> <PUBCHEM_CONFORMER_ID>
0455815900000001

> <PUBCHEM_MMFF94_ENERGY>
72.322

> <PUBCHEM_FEATURE_SELFOVERLAP>
45.916

> <PUBCHEM_SHAPE_FINGERPRINT>
10366900 7 17846498106676153978
10616163 171 18341340998479888406
10764073 3 18046379451114110731
107951 10 17240485784442598299
10906281 52 18200611197498822253
11315181 36 17418093222192347474
12363563 72 18202569475274038260
12553582 1 18342185453310787066
12555020 224 18411412887070424791
12596602 18 14117511018223004606
12714826 92 17749680695758973123
12788726 201 18196367027012985160
12892183 10 12751244666718605244
13544653 18 18342181068318255468
14115302 16 18186806876330341268
14289901 80 14549026498152185192
14790565 3 18051982419934287393
15099037 51 18411413982318577717
15163728 17 16010976603786714663
15342168 16 7853575742209340387
15880784 105 16917062253236162890
16752209 62 18265605485979798288
17349148 13 16988565731641038901
18222031 100 17418088819751012812
18927931 339 18270696285684356678
19862831 5 18187363216555784712
200 152 17703787020122705293
204376 136 8286196150100470032
20645477 70 18059293274684062412
20832881 197 18342449306169070665
20871999 31 18337668611861971188
21069387 34 17775280603709044629
21285901 2 18266453217981949261
21756936 100 13118003305555154044
22079108 93 11963401729790414069
221490 88 18194405708927911304
23402539 116 18130503016139021541
23559900 14 18411132572136031368
3004659 81 18261951856723570806
339767 52 18412819175754480762
3759504 43 17385723582675058779
4921388 177 16805331036313855491
5161694 15 18261385676353200261
559249 180 18046905975206943298
6138700 20 18268707204187188647
633830 44 14562822083594154380
70251023 43 17978507864814463579
7808743 9 8285609007186997334
9709674 26 18195798794323311055

> <PUBCHEM_SHAPE_MULTIPOLES>
421.09
9.38
2.7
1.26
7.09
0.32
0.23
-2.82
-4
-0.04
0.73
-1.34
-0.29
0.73

> <PUBCHEM_SHAPE_SELFOVERLAP>
934.209

> <PUBCHEM_SHAPE_VOLUME>
221.3

> <PUBCHEM_COORDINATE_TYPE>
2
5
10

$$$$
