71681797
  -OEChem-04102423373D

 51 54  0     1  0  0  0  0  0999 V2000
    3.1609   -1.5742   -1.8336 O   0  0  0  0  0  0  0  0  0  0  0  0
    3.9369    3.7382    0.6378 O   0  0  0  0  0  0  0  0  0  0  0  0
    1.6464   -2.2297    0.8565 N   0  0  0  0  0  0  0  0  0  0  0  0
    3.0573   -3.9983    0.1322 N   0  0  0  0  0  0  0  0  0  0  0  0
   -6.2588    0.3441   -0.4587 N   0  0  0  0  0  0  0  0  0  0  0  0
    0.9322   -1.0791    0.2057 C   0  0  1  0  0  0  0  0  0  0  0  0
    0.8123   -1.5872   -1.2628 C   0  0  0  0  0  0  0  0  0  0  0  0
    2.0758   -2.3960   -1.4692 C   0  0  2  0  0  0  0  0  0  0  0  0
   -0.4402   -0.8671    0.8653 C   0  0  0  0  0  0  0  0  0  0  0  0
    1.7461    0.2265    0.3229 C   0  0  0  0  0  0  0  0  0  0  0  0
    2.2674   -2.9013   -0.0680 C   0  0  0  0  0  0  0  0  0  0  0  0
   -1.5135   -0.3970    0.1084 C   0  0  0  0  0  0  0  0  0  0  0  0
   -0.6123   -1.1464    2.2211 C   0  0  0  0  0  0  0  0  0  0  0  0
    1.6643    1.1920   -0.6807 C   0  0  0  0  0  0  0  0  0  0  0  0
    2.5638    0.4413    1.4325 C   0  0  0  0  0  0  0  0  0  0  0  0
   -2.7588   -0.2061    0.7073 C   0  0  0  0  0  0  0  0  0  0  0  0
   -1.8577   -0.9558    2.8199 C   0  0  0  0  0  0  0  0  0  0  0  0
    2.4003    2.3721   -0.5747 C   0  0  0  0  0  0  0  0  0  0  0  0
    3.3000    1.6213    1.5382 C   0  0  0  0  0  0  0  0  0  0  0  0
   -2.9308   -0.4855    2.0631 C   0  0  0  0  0  0  0  0  0  0  0  0
    3.2802   -1.4396   -3.2488 C   0  0  0  0  0  0  0  0  0  0  0  0
    3.2183    2.5867    0.5347 C   0  0  0  0  0  0  0  0  0  0  0  0
   -3.8723    0.2808   -0.0775 C   0  0  0  0  0  0  0  0  0  0  0  0
   -3.6687    1.1208   -1.1668 C   0  0  0  0  0  0  0  0  0  0  0  0
   -5.1750   -0.0750    0.2324 C   0  0  0  0  0  0  0  0  0  0  0  0
   -4.7586    1.5729   -1.9023 C   0  0  0  0  0  0  0  0  0  0  0  0
    3.8062    4.6821   -0.4242 C   0  0  0  0  0  0  0  0  0  0  0  0
   -6.0217    1.1592   -1.5109 C   0  0  0  0  0  0  0  0  0  0  0  0
   -0.0361   -2.2840   -1.3381 H   0  0  0  0  0  0  0  0  0  0  0  0
    0.6577   -0.8283   -2.0303 H   0  0  0  0  0  0  0  0  0  0  0  0
    1.9383   -3.2333   -2.1627 H   0  0  0  0  0  0  0  0  0  0  0  0
   -1.3686   -0.1964   -0.9486 H   0  0  0  0  0  0  0  0  0  0  0  0
    0.2087   -1.5016    2.8374 H   0  0  0  0  0  0  0  0  0  0  0  0
    1.0131    1.0885   -1.5409 H   0  0  0  0  0  0  0  0  0  0  0  0
    2.6384   -0.2898    2.2323 H   0  0  0  0  0  0  0  0  0  0  0  0
    3.5161   -4.4744   -0.6372 H   0  0  0  0  0  0  0  0  0  0  0  0
    3.2111   -4.3694    1.0635 H   0  0  0  0  0  0  0  0  0  0  0  0
   -1.9890   -1.1651    3.8776 H   0  0  0  0  0  0  0  0  0  0  0  0
    2.2839    3.0834   -1.3852 H   0  0  0  0  0  0  0  0  0  0  0  0
    3.9339    1.7841    2.4056 H   0  0  0  0  0  0  0  0  0  0  0  0
   -3.8750   -0.3254    2.5765 H   0  0  0  0  0  0  0  0  0  0  0  0
    4.1158   -0.7662   -3.4572 H   0  0  0  0  0  0  0  0  0  0  0  0
    2.3704   -1.0100   -3.6778 H   0  0  0  0  0  0  0  0  0  0  0  0
    3.4929   -2.4106   -3.7061 H   0  0  0  0  0  0  0  0  0  0  0  0
   -2.6830    1.4713   -1.4596 H   0  0  0  0  0  0  0  0  0  0  0  0
   -5.4257   -0.7475    1.0467 H   0  0  0  0  0  0  0  0  0  0  0  0
   -4.6247    2.2338   -2.7510 H   0  0  0  0  0  0  0  0  0  0  0  0
    4.4473    5.5352   -0.1790 H   0  0  0  0  0  0  0  0  0  0  0  0
    2.7822    5.0632   -0.5000 H   0  0  0  0  0  0  0  0  0  0  0  0
    4.1683    4.2727   -1.3735 H   0  0  0  0  0  0  0  0  0  0  0  0
   -6.9047    1.4852   -2.0505 H   0  0  0  0  0  0  0  0  0  0  0  0
  1  8  1  0  0  0  0
  1 21  1  0  0  0  0
  2 22  1  0  0  0  0
  2 27  1  0  0  0  0
  3  6  1  0  0  0  0
  3 11  2  0  0  0  0
  4 11  1  0  0  0  0
  4 36  1  0  0  0  0
  4 37  1  0  0  0  0
  5 25  1  0  0  0  0
  5 28  2  0  0  0  0
  6  7  1  0  0  0  0
  6  9  1  0  0  0  0
  6 10  1  0  0  0  0
  7  8  1  0  0  0  0
  7 29  1  0  0  0  0
  7 30  1  0  0  0  0
  8 11  1  0  0  0  0
  8 31  1  0  0  0  0
  9 12  1  0  0  0  0
  9 13  2  0  0  0  0
 10 14  2  0  0  0  0
 10 15  1  0  0  0  0
 12 16  2  0  0  0  0
 12 32  1  0  0  0  0
 13 17  1  0  0  0  0
 13 33  1  0  0  0  0
 14 18  1  0  0  0  0
 14 34  1  0  0  0  0
 15 19  2  0  0  0  0
 15 35  1  0  0  0  0
 16 20  1  0  0  0  0
 16 23  1  0  0  0  0
 17 20  2  0  0  0  0
 17 38  1  0  0  0  0
 18 22  2  0  0  0  0
 18 39  1  0  0  0  0
 19 22  1  0  0  0  0
 19 40  1  0  0  0  0
 20 41  1  0  0  0  0
 21 42  1  0  0  0  0
 21 43  1  0  0  0  0
 21 44  1  0  0  0  0
 23 24  1  0  0  0  0
 23 25  2  0  0  0  0
 24 26  2  0  0  0  0
 24 45  1  0  0  0  0
 25 46  1  0  0  0  0
 26 28  1  0  0  0  0
 26 47  1  0  0  0  0
 27 48  1  0  0  0  0
 27 49  1  0  0  0  0
 27 50  1  0  0  0  0
 28 51  1  0  0  0  0
M  END
> <PUBCHEM_COMPOUND_CID>
71681797

> <PUBCHEM_CONFORMER_RMSD>
0.8

> <PUBCHEM_CONFORMER_DIVERSEORDER>
1
43
39
19
5
41
35
8
37
44
16
25
34
32
11
15
18
14
23
20
21
33
29
17
12
24
22
40
38
9
6
30
36
28
7
13
3
42
10
2
4
31
27
26

> <PUBCHEM_MMFF94_PARTIAL_CHARGES>
39
1 -0.56
10 -0.14
11 0.44
12 -0.15
13 -0.15
14 -0.15
15 -0.15
17 -0.15
18 -0.15
19 -0.15
2 -0.36
20 -0.15
21 0.28
22 0.08
24 -0.15
25 0.16
26 -0.15
27 0.28
28 0.16
3 -0.7
32 0.15
33 0.15
34 0.15
35 0.15
36 0.4
37 0.4
38 0.15
39 0.15
4 -0.85
40 0.15
41 0.15
45 0.15
46 0.15
47 0.15
5 -0.62
51 0.15
6 0.53
8 0.34
9 -0.14

> <PUBCHEM_EFFECTIVE_ROTOR_COUNT>
5.6

> <PUBCHEM_PHARMACOPHORE_FEATURES>
9
1 1 acceptor
1 2 acceptor
1 4 donor
1 5 acceptor
3 3 4 11 cation
5 3 6 7 8 11 rings
6 10 14 15 18 19 22 rings
6 5 23 24 25 26 28 rings
6 9 12 13 16 17 20 rings

> <PUBCHEM_HEAVY_ATOM_COUNT>
28

> <PUBCHEM_ATOM_DEF_STEREO_COUNT>
2

> <PUBCHEM_ATOM_UDEF_STEREO_COUNT>
0

> <PUBCHEM_BOND_DEF_STEREO_COUNT>
0

> <PUBCHEM_BOND_UDEF_STEREO_COUNT>
0

> <PUBCHEM_ISOTOPIC_ATOM_COUNT>
0

> <PUBCHEM_COMPONENT_COUNT>
1

> <PUBCHEM_CACTVS_TAUTO_COUNT>
3

> <PUBCHEM_CONFORMER_ID>
0445C70500000001

> <PUBCHEM_MMFF94_ENERGY>
106.8483

> <PUBCHEM_FEATURE_SELFOVERLAP>
45.672

> <PUBCHEM_SHAPE_FINGERPRINT>
10764073 3 17460004367854943560
10930396 42 17974542747408467602
11578080 2 18335715978195547367
11720765 8 18120924006386661354
11725454 13 18189882270762308897
11763715 3 15984275002018177922
12160290 23 15936987352581986659
12166972 35 17702376261100698815
12549972 3 17676784084254985587
12633257 1 15792840295078634084
12788726 201 17183926670223521650
13134695 92 18194690271875721294
133893 2 18129963207727509874
13590594 115 17906176148477653569
13911987 19 17913217730332758569
14251764 38 18262227838268837401
14347329 18 16516823442062207469
14739800 52 16226905499739337396
14863182 85 15840972383089392366
15163728 17 18265337394237194052
17349148 13 17202761484759378519
17844677 252 18268988697008393581
1813 80 17487344737665153382
21223535 225 18124311606687964037
21304303 282 17194846362675178472
2132832 1 17773876394031532289
21756936 100 17319577182477106576
21860390 5 18336536136439072956
22182313 1 17969238853164215851
23559900 14 17603875455480332495
238 59 18343309158088479498
244849 19 18114474400370369539
2838139 119 18189881179630099337
3004659 81 17274816897122348615
312423 11 17059788732272022619
34797466 226 18411125932554019549
376196 1 18189884490991700569
44802255 64 17903654213260768492
46194498 28 18272370837176402005
469060 322 17762625392583237291
495365 180 18334013878361188419
5081480 168 18195273060209275525
513532 50 18113612357315336843
5219985 13 18120087548901101060
5223283 242 17766560149872968461
5281201 14 18339637829240493877
59025328 239 17697299734210632375
70251023 43 17916601825221873967
7399639 24 18118422858437359035
7471813 234 17560245695691336410
9658208 31 17458635471847314947
9981440 41 18118959428353137977

> <PUBCHEM_SHAPE_MULTIPOLES>
549.55
10.68
4.15
2.45
16.75
2.29
0.31
6.93
4.11
-8.59
0.66
-0.09
-1.01
3.1

> <PUBCHEM_SHAPE_SELFOVERLAP>
1207.645

> <PUBCHEM_SHAPE_VOLUME>
297.4

> <PUBCHEM_COORDINATE_TYPE>
2
5
10

$$$$
